25

C   2.3036   1.0941   0.4753
C   3.6484   1.4198   0.4181
C   4.5364   0.4750   -0.0759
C   2.8785   -1.0416   -0.4183
C   1.9002   -0.1619   0.0421
C   0.4836   -0.6535   0.0733
C   -1.8626   0.2007   -0.0342
C   -2.5235   -0.9885   0.2682
C   -3.9117   -1.0095   0.2652
C   -4.6508   0.1251   -0.0315
C   -3.9861   1.3067   -0.3310
C   -2.6037   1.3450   -0.3325
O   0.2337   -1.8336   0.1822
N   -0.4614   0.3284   -0.0412
N   4.1670   -0.7352   -0.4879
H   1.5925   1.8013   0.8866
H   4.0063   2.3819   0.7575
H   5.5957   0.6986   -0.1376
H   2.5830   -2.0335   -0.7400
H   -1.9580   -1.8767   0.4947
H   -4.4181   -1.9367   0.5005
H   -5.7318   0.0912   -0.0305
H   -4.5442   2.2036   -0.5658
H   -2.0884   2.2695   -0.5684
H   -0.1200   1.2493   -0.2624
