33

C   -2.4561   -1.7529   -1.1393
C   -1.1125   -1.4455   -0.9860
C   -0.7246   -0.2690   -0.3460
C   -1.7205   0.5912   0.1401
C   -3.0659   0.2806   -0.0369
C   -3.4398   -0.8894   -0.6722
C   1.6238   -0.9553   -0.0795
C   2.9908   -0.3197   0.1628
C   2.4050   1.6494   -0.9056
C   1.0279   1.1059   -1.2180
C   -1.3666   1.8123   0.9068
C   1.2883   -1.9212   1.0618
C   0.8732   -1.2461   2.3660
O   -2.1641   2.6649   1.2035
O   3.3451   0.6016   -0.8415
N   0.6351   0.1175   -0.2083
H   -2.7367   -2.6710   -1.6400
H   -0.3617   -2.1173   -1.3800
H   -3.8015   0.9728   0.3531
H   -4.4858   -1.1333   -0.8001
H   1.7077   -1.5224   -1.0211
H   2.9953   0.1809   1.1396
H   3.7551   -1.0966   0.1611
H   2.3810   2.1904   0.0502
H   2.7351   2.3294   -1.6899
H   1.0361   0.6499   -2.2199
H   0.2988   1.9177   -1.2255
H   -0.3111   1.8859   1.2193
H   2.1722   -2.5430   1.2289
H   0.4959   -2.6026   0.7506
H   1.6188   -0.5317   2.7146
H   0.7378   -1.9932   3.1480
H   -0.0696   -0.7116   2.2489
