45

S   -2.7028   -2.8546   0.4483
C   -1.9327   -1.3651   0.0141
N   -2.7397   -0.3631   -0.1357
C   -4.0267   -0.7489   0.0928
C   -4.2029   -2.0605   0.4233
C   -0.4804   -1.3043   -0.1560
O   0.1176   -2.4985   0.1175
C   1.4353   -2.6245   -0.3840
C   2.2812   -1.4179   -0.0141
C   1.6647   -0.1712   -0.6447
C   0.1705   -0.2038   -0.5174
C   -5.1742   0.1891   -0.0070
O   -6.3121   -0.1451   0.1990
O   3.5714   -1.6666   -0.5723
C   4.6260   -1.0231   -0.0334
O   4.5524   -0.3379   0.9494
N   2.2490   1.0669   -0.1084
C   1.9815   1.3710   1.2177
N   2.5885   2.5220   1.6814
C   3.4792   3.2553   0.9546
C   3.8110   2.9056   -0.2925
C   3.2464   1.7031   -0.8779
O   -4.8055   1.4207   -0.3458
C   -5.8699   2.3743   -0.4587
C   -5.2525   3.6951   -0.8469
C   5.8635   -1.2542   -0.8439
O   1.2666   0.7065   1.9271
O   3.5885   1.2473   -1.9482
H   -5.1359   -2.5514   0.6442
H   1.4026   -2.7280   -1.4741
H   1.8536   -3.5296   0.0500
H   2.3472   -1.3110   1.0677
H   1.9479   -0.1656   -1.6985
H   -0.4016   0.6923   -0.7130
H   2.3980   2.7313   2.6481
H   3.8944   4.1195   1.4543
H   4.5257   3.4590   -0.8783
H   -6.5814   2.0174   -1.2046
H   -6.3927   2.4293   0.4972
H   -4.7298   3.6093   -1.7990
H   -4.5405   4.0228   -0.0902
H   -6.0308   4.4519   -0.9440
H   5.7799   -0.6403   -1.7428
H   6.7348   -0.9514   -0.2718
H   5.9363   -2.2957   -1.1492
