37

C   6.0411   0.4494   0.0965
C   5.8444   1.8162   0.2661
C   4.5506   2.3109   0.3096
N   3.4696   1.5494   0.1964
C   3.6494   0.2388   0.0312
C   4.9111   -0.3466   -0.0246
C   2.4222   -0.5971   -0.0978
N   2.5914   -1.9068   -0.2681
C   1.5053   -2.6648   -0.3857
C   0.2138   -2.1730   -0.3409
C   0.0250   -0.8014   -0.1596
C   1.1606   -0.0091   -0.0390
C   7.4206   -0.1420   0.0705
C   -1.2949   -0.1675   -0.0925
C   -2.4690   -0.8027   -0.1213
C   -3.7651   -0.1330   -0.0555
C   -4.9235   -0.9886   0.3756
C   -6.2576   -0.3537   0.5056
C   -6.4457   0.9297   0.2163
C   -5.3197   1.7787   -0.2497
C   -3.9894   1.1513   -0.3712
O   -4.7783   -2.1662   0.6042
O   -5.4927   2.9455   -0.5213
H   6.6867   2.4901   0.3605
H   4.3757   3.3736   0.4395
H   4.9870   -1.4160   -0.1647
H   1.6779   -3.7263   -0.5252
H   -0.6204   -2.8520   -0.4490
H   1.0882   1.0605   0.1015
H   7.7825   -0.2983   1.0888
H   7.4261   -1.1051   -0.4372
H   8.1234   0.5231   -0.4307
H   -1.2773   0.9134   0.0110
H   -2.5161   -1.8840   -0.1525
H   -7.0525   -1.0079   0.8410
H   -7.4078   1.4199   0.2968
H   -3.2058   1.8018   -0.7406
