47

N   0.4693   -1.0127   0.0644
C   -0.0229   -1.2608   1.3415
C   -1.2973   -1.5618   1.5850
C   -2.3583   -1.6158   0.5177
C   -1.7090   -1.4704   -0.8340
C   -0.4227   -1.1671   -0.9960
C   1.8174   -0.6805   -0.1576
C   2.1645   0.2175   -1.1660
C   3.4924   0.5411   -1.3908
C   4.4804   -0.0164   -0.6007
C   4.1564   -0.9085   0.4077
C   2.8305   -1.2436   0.6201
C   -3.4133   -0.5275   0.7602
C   -4.6376   -0.6688   -0.1216
O   -4.7647   -1.6073   -0.8718
O   5.7966   0.2975   -0.9119
C   6.6304   0.7402   0.0654
O   6.3061   0.8804   1.2062
C   -5.7074   0.3790   -0.0302
C   -5.6149   1.4656   0.8358
C   -6.6347   2.4053   0.8895
C   -7.7505   2.2645   0.0773
C   -7.8484   1.1820   -0.7897
C   -6.8320   0.2442   -0.8423
C   7.9951   1.0218   -0.5052
C   8.9697   1.5157   0.5486
H   0.7004   -1.1689   2.1384
H   -1.5900   -1.7382   2.6124
H   -2.8861   -2.5745   0.5579
H   -2.3206   -1.6265   -1.7113
H   0.0214   -1.0816   -1.9775
H   1.3910   0.6864   -1.7588
H   3.7695   1.2380   -2.1704
H   4.9353   -1.3458   1.0152
H   2.5845   -1.9726   1.3799
H   -2.9669   0.4591   0.6065
H   -3.7485   -0.5528   1.8036
H   -4.7494   1.5857   1.4738
H   -6.5575   3.2471   1.5650
H   -8.5454   2.9981   0.1192
H   -8.7192   1.0724   -1.4228
H   -6.8864   -0.6074   -1.5075
H   7.8666   1.7463   -1.3124
H   8.3421   0.1031   -0.9837
H   8.6080   2.4337   1.0093
H   9.0904   0.7777   1.3402
H   9.9444   1.7104   0.1033
