27

C   1.4514   -1.2225   -0.0005
C   -0.6774   -0.6631   -0.0003
C   -0.8383   -2.0064   0.0010
C   3.6727   -0.0296   -0.0013
C   3.0021   1.3297   0.0003
C   -1.7195   0.4104   -0.0009
C   -3.1611   -0.0304   -0.0000
C   -5.3735   0.7668   0.0002
C   -6.0908   2.0940   -0.0006
O   -3.5687   -1.1596   0.0010
O   4.8603   -0.2027   -0.0027
O   -3.9635   1.0388   -0.0006
N   2.8300   -1.1376   -0.0010
N   0.6332   -0.2244   -0.0012
S   0.6977   -2.7824   0.0013
Cl   4.1912   2.6311   0.0017
H   -1.7551   -2.5672   0.0017
H   2.3639   1.4284   -0.8740
H   2.3640   1.4265   0.8749
H   -1.5727   1.0587   -0.8685
H   -1.5721   1.0602   0.8655
H   -5.6131   0.1692   -0.8802
H   -5.6125   0.1706   0.8816
H   -7.1682   1.9300   -0.0001
H   -5.8284   2.6741   0.8834
H   -5.8290   2.6728   -0.8857
H   3.3480   -2.0050   -0.0020
