40

O   -1.1550   -0.1472   -1.3303
N   0.1518   -0.1841   -0.7731
C   0.0134   0.5467   0.4792
C   -1.3601   0.1159   1.0190
C   -2.1291   -0.1061   -0.2941
C   0.5583   -1.5822   -0.5948
C   2.0171   -1.6491   -0.2260
C   2.9699   -0.9910   -1.0014
C   4.3138   -1.0572   -0.6701
C   4.7247   -1.7829   0.4421
C   3.7834   -2.4381   1.2205
C   2.4359   -2.3668   0.8879
C   0.0804   2.0462   0.2648
N   -0.1177   2.7803   1.3585
C   -0.0522   4.1023   1.2489
C   0.2006   4.7565   0.0519
C   0.3937   3.9870   -1.0841
C   0.3360   2.6063   -0.9814
C   -2.9286   -1.3938   -0.2414
O   -2.5226   -2.4785   -0.5467
O   -4.1519   -1.1640   0.2493
C   -4.9701   -2.3216   0.4151
H   0.8209   0.2578   1.1534
H   -1.2780   -0.8091   1.5892
H   -1.8072   0.8786   1.6494
H   -2.8052   0.7227   -0.5075
H   0.3757   -2.0688   -1.5531
H   -0.0507   -2.1070   0.1493
H   2.6436   -0.4214   -1.8628
H   5.0449   -0.5426   -1.2804
H   5.7745   -1.8340   0.7001
H   4.0947   -3.0027   2.0899
H   1.7005   -2.8769   1.4995
H   -0.2115   4.6663   2.1617
H   0.2402   5.8365   0.0171
H   0.5871   4.4557   -2.0407
H   0.4782   1.9601   -1.8353
H   -4.4974   -3.0227   1.1016
H   -5.9125   -1.9653   0.8189
H   -5.1231   -2.8141   -0.5438
