59

C   -1.6336   2.3084   1.5877
C   -1.4144   3.5729   1.9146
H   -1.9363   4.3945   1.4413
H   -0.6965   3.8293   2.6828
C   -2.6119   1.7831   0.5646
C   -3.5778   0.8514   1.3365
C   -4.5283   0.1161   0.4026
C   -3.7484   -0.6175   -0.6447
C   -4.0240   -1.9175   -0.5690
C   -5.0122   -2.1013   0.5254
O   -5.5188   -3.1115   0.9099
O   -5.2701   -0.8850   1.0849
C   -3.5083   -3.0872   -1.3278
H   -3.0689   -3.8155   -0.6448
H   -4.3271   -3.5924   -1.8425
H   -2.7603   -2.7913   -2.0611
C   -2.7502   0.1506   -1.4337
C   -1.8182   0.9216   -0.4743
C   -0.7649   1.7030   -1.2317
C   -1.0197   2.4514   -2.2976
H   -0.2246   2.9782   -2.8104
H   -2.0190   2.5725   -2.6968
C   0.6433   1.5775   -0.7237
O   1.0152   0.2044   -0.7800
C   2.1206   -0.1241   -0.0106
C   2.3334   -1.6258   -0.1459
C   3.6238   -2.0225   0.5508
C   4.7902   -1.1520   0.0889
C   4.4269   0.3324   0.1911
C   5.4587   1.2365   -0.4572
O   6.7058   1.0279   0.1923
H   7.3905   1.5290   -0.2570
H   5.1340   2.2758   -0.3601
H   5.5204   0.9840   -1.5204
O   3.2261   0.5965   -0.5090
H   4.3205   0.5923   1.2532
O   5.8694   -1.4850   0.9392
H   6.5552   -0.8131   0.8311
H   5.0128   -1.3879   -0.9581
O   3.4145   -1.8595   1.9368
H   4.2875   -1.8933   2.3487
H   3.8511   -3.0662   0.3084
O   2.4385   -1.9994   -1.4978
H   1.8055   -1.4682   -1.9952
H   1.4964   -2.1327   0.3479
H   1.9614   0.1436   1.0451
H   1.3294   2.1756   -1.3247
H   0.7056   1.9192   0.3165
H   -1.2882   0.1623   0.1106
H   -3.2644   0.8502   -2.0980
H   -2.1498   -0.5057   -2.0638
H   -5.2446   0.8119   -0.0449
H   -3.0022   0.0964   1.8804
H   -4.1378   1.4323   2.0715
C   -3.3914   2.9178   -0.0963
H   -4.0039   3.4320   0.6465
H   -2.7193   3.6463   -0.5474
H   -4.0574   2.5530   -0.8786
H   -1.0766   1.5308   2.1091
