32

C   3.9189   0.4212   -0.8107
C   3.3965   1.7038   -0.7412
C   2.1394   1.8804   -0.1785
N   1.4078   0.8776   0.2919
C   1.9181   -0.3499   0.2193
C   3.1677   -0.6310   -0.3167
C   1.0748   -1.4706   0.7663
C   -0.3506   -1.1176   1.1297
O   1.5334   -2.5709   0.9223
C   -1.0880   -0.7008   -0.1363
O   -0.6998   -1.1052   -1.2191
N   -2.1770   0.0922   -0.0059
C   -2.6792   0.5945   1.2627
C   -2.0767   1.9440   1.6331
C   -2.8670   0.5098   -1.2208
C   -3.9168   -0.5019   -1.6567
H   4.8948   0.2462   -1.2447
H   3.9477   2.5557   -1.1154
H   1.7026   2.8704   -0.1060
H   3.5134   -1.6550   -0.3373
H   -0.3380   -0.3216   1.8728
H   -0.8206   -2.0063   1.5521
H   -2.4937   -0.1399   2.0452
H   -3.7650   0.6742   1.1742
H   -0.9908   1.8675   1.7060
H   -2.4746   2.2984   2.5847
H   -2.3071   2.6872   0.8685
H   -3.3224   1.4822   -1.0230
H   -2.1213   0.6373   -2.0035
H   -4.6603   -0.6558   -0.8726
H   -4.4331   -0.1581   -2.5536
H   -3.4373   -1.4553   -1.8759
