70

C   1.7386   -1.0262   0.0005
C   1.3193   0.3924   0.3342
C   -0.1538   0.5806   0.0250
C   -0.9686   -0.5031   0.7335
C   -2.4354   -0.3965   0.4174
C   -3.1897   0.6217   1.0116
C   -4.5604   0.7617   0.7294
C   -5.1745   -0.1387   -0.1689
C   -4.4330   -1.1481   -0.7552
C   -3.0754   -1.2578   -0.4491
H   -2.4957   -2.0540   -0.8969
H   -4.8817   -1.8535   -1.4367
O   -6.4923   0.0612   -0.3904
C   -7.1599   -0.8026   -1.3001
C   -8.5751   -0.3424   -1.4135
C   -9.6168   -1.1377   -1.2378
H   -9.4915   -2.1804   -0.9691
H   -10.6299   -0.7782   -1.3591
H   -8.7119   0.7023   -1.6733
H   -7.1150   -1.8350   -0.9411
H   -6.6600   -0.7493   -2.2739
C   -5.3278   1.8202   1.3656
O   -4.8486   2.6237   2.1520
H   -6.3932   1.8786   1.1106
O   -2.5696   1.4509   1.8556
H   -3.2378   2.0935   2.1908
O   -0.5165   -1.7849   0.3378
C   0.8275   -2.0383   0.6962
C   1.1555   -3.4598   0.2991
H   2.1833   -3.7009   0.5695
H   1.0368   -3.5809   -0.7785
H   0.4866   -4.1532   0.8069
H   0.9441   -1.9129   1.7829
H   -0.8340   -0.3926   1.8188
H   -0.4842   1.5678   0.3473
H   -0.3167   0.4915   -1.0522
O   2.0786   1.2931   -0.4734
C   3.1137   1.9520   0.0861
O   3.3979   1.8757   1.2490
C   3.8551   2.7862   -0.9490
C   2.8693   3.7464   -1.6236
H   2.0867   3.2014   -2.1492
H   2.4021   4.4077   -0.8914
H   3.4072   4.3646   -2.3443
C   4.4533   1.8367   -1.9948
H   3.6809   1.2518   -2.4923
H   5.1588   1.1395   -1.5378
H   4.9924   2.4207   -2.7430
C   4.9609   3.5685   -0.2493
H   5.6607   2.8977   0.2491
H   5.5075   4.1611   -0.9844
H   4.5500   4.2388   0.5056
H   1.5307   0.5946   1.3863
O   3.0687   -1.2333   0.4676
C   4.0458   -1.4769   -0.4302
O   3.8606   -1.5193   -1.6145
C   5.3795   -1.7156   0.2631
C   5.2483   -2.9909   1.1067
H   4.9795   -3.8470   0.4841
H   4.4948   -2.8706   1.8847
H   6.2059   -3.2067   1.5834
C   5.7118   -0.5266   1.1701
H   4.9392   -0.3642   1.9195
H   6.6619   -0.7165   1.6729
H   5.8126   0.3949   0.5936
C   6.4589   -1.8965   -0.7982
H   6.5460   -1.0073   -1.4233
H   6.2319   -2.7393   -1.4504
H   7.4192   -2.0754   -0.3122
H   1.7003   -1.1758   -1.0802
