20

C   -0.0001   -0.7022   -0.0002
C   -1.2738   0.0784   0.1637
C   -1.2536   1.4145   0.1749
C   0.0001   2.1696   -0.0002
C   1.2538   1.4144   -0.1749
C   1.2738   0.0783   -0.1637
C   2.7375   -1.7443   0.3803
C   -2.7376   -1.7441   -0.3802
O   -2.4142   -0.5870   0.3964
O   2.4142   -0.5872   -0.3963
O   0.0002   3.3819   0.0001
O   -0.0001   -1.9085   -0.0001
H   -2.1615   1.9858   0.3140
H   2.1617   1.9855   -0.3138
H   3.8231   -1.7582   0.4431
H   2.3734   -2.6469   -0.1023
H   2.3163   -1.6716   1.3829
H   -2.3165   -1.6714   -1.3828
H   -2.3736   -2.6466   0.1024
H   -3.8233   -1.7579   -0.4429
