33

C   -4.5677   -0.8554   -0.4384
C   -4.8069   0.3395   0.2348
C   -3.7011   1.0376   0.7083
C   -2.4071   0.5737   0.5283
C   -2.1784   -0.6181   -0.1606
C   -3.2826   -1.3252   -0.6424
C   0.3186   -0.4761   -0.2933
C   1.4470   -1.1679   0.1361
C   2.6917   -0.5578   0.1505
C   2.8255   0.7695   -0.2570
C   1.6986   1.4615   -0.6715
C   0.4565   0.8539   -0.6998
C   4.9006   -0.5091   0.8879
C   5.1333   0.5182   -0.1976
C   -6.2067   0.8370   0.4693
O   3.7600   -1.2919   0.5787
O   4.0369   1.4103   -0.2581
N   -0.9045   -1.1473   -0.3543
H   -5.4048   -1.4257   -0.8249
H   -3.8516   1.9676   1.2450
H   -1.5743   1.1280   0.9381
H   -3.1224   -2.2470   -1.1897
H   1.3749   -2.1920   0.4806
H   1.8217   2.4867   -0.9961
H   -0.4026   1.3982   -1.0650
H   4.7509   -0.0042   1.8477
H   5.7398   -1.1977   0.9681
H   5.2552   0.0139   -1.1624
H   6.0175   1.1177   0.0113
H   -6.8724   0.5362   -0.3398
H   -6.6163   0.4349   1.3990
H   -6.2312   1.9242   0.5424
H   -0.8555   -2.1453   -0.4666
