25

C   -1.6741   -0.3239   0.0464
C   -0.2670   -0.5376   -0.1436
C   0.5279   0.5309   -0.2881
C   -1.2277   2.0940   -0.0905
C   -2.1156   0.9643   0.0673
C   0.5843   -1.7391   -0.2192
C   1.9545   0.1201   -0.4518
C   -3.8165   -1.2318   0.3734
C   2.8713   0.6527   0.6384
C   4.3051   0.1769   0.4539
O   -1.5162   3.2491   -0.0854
O   0.1507   1.7908   -0.2721
O   -2.4208   -1.4075   0.1847
O   1.8738   -1.3032   -0.4052
O   0.3090   -2.8923   -0.1449
H   -3.1515   1.2284   0.2028
H   2.3275   0.4108   -1.4394
H   -4.2564   -0.7194   -0.4842
H   -4.0103   -0.6626   1.2843
H   -4.2317   -2.2302   0.4632
H   2.8151   1.7434   0.6159
H   2.4760   0.3242   1.6029
H   4.3533   -0.9114   0.4642
H   4.7113   0.5268   -0.4966
H   4.9419   0.5563   1.2518
