18

O   0.4950   0.9647   1.3527
O   -1.3222   -0.8759   -1.1132
O   -1.4844   -0.7813   1.1120
C   0.1600   0.6054   0.0330
C   1.3877   -0.0091   -0.6498
C   -0.3292   1.8418   -0.7198
C   1.8612   -1.2914   0.0188
C   -0.9631   -0.4187   0.0919
H   -0.1229   0.5199   1.9482
H   -2.0417   -1.5108   -0.9829
H   1.1559   -0.1841   -1.7016
H   2.1707   0.7510   -0.6054
H   0.4666   2.5861   -0.7054
H   -1.2032   2.2647   -0.2237
H   -0.5805   1.6025   -1.7522
H   2.7813   -1.6511   -0.4406
H   1.1162   -2.0856   -0.0708
H   2.0515   -1.1201   1.0779
