22

C   -0.9533   0.2220   -0.0396
C   -0.3729   -0.9927   -0.3457
C   -1.3163   -2.0549   -0.3221
C   -2.5700   -1.6320   0.0029
C   2.1152   -0.7757   0.8558
C   3.6048   -1.0632   0.7674
C   -0.4316   1.6068   0.0400
C   0.8131   1.9545   -0.7043
C   1.3964   3.1283   -0.5019
O   -1.0511   2.4434   0.6613
S   1.3256   -1.3268   -0.6900
S   -2.6258   0.0367   0.3118
H   -1.0487   -3.0812   -0.5255
H   -3.4624   -2.2313   0.0887
H   1.9353   0.2902   0.9887
H   1.6531   -1.3169   1.6803
H   4.0574   -0.5207   -0.0632
H   3.7912   -2.1275   0.6225
H   4.0991   -0.7514   1.6874
H   1.2082   1.2306   -1.4042
H   0.9796   3.8273   0.2131
H   2.2889   3.4162   -1.0416
