27

C   3.2021   -1.0548   0.3901
C   3.6057   0.2546   0.1767
C   2.6452   1.1905   -0.1769
N   1.3545   0.8995   -0.3084
C   0.9753   -0.3590   -0.1050
C   1.8649   -1.3735   0.2350
C   -0.4657   -0.7565   -0.3410
O   -0.6852   -1.8744   -0.7829
N   -1.4586   0.1251   -0.0830
C   -1.3422   1.3632   0.6799
C   -1.4192   2.6055   -0.1938
C   -2.8162   -0.3064   -0.4037
C   -3.4147   -1.1865   0.6852
H   3.9209   -1.8166   0.6635
H   4.6416   0.5486   0.2762
H   2.9234   2.2220   -0.3633
H   1.4920   -2.3808   0.3528
H   -0.4133   1.3548   1.2420
H   -2.1576   1.3642   1.4096
H   -1.3921   3.5036   0.4250
H   -2.3444   2.6236   -0.7715
H   -0.5743   2.6218   -0.8793
H   -2.7845   -0.8489   -1.3466
H   -3.4170   0.5928   -0.5478
H   -3.4326   -0.6661   1.6443
H   -4.4385   -1.4630   0.4315
H   -2.8245   -2.0958   0.7887
