32

C   1.9693   0.6010   0.7586
C   2.6809   1.6717   -0.0806
C   1.5436   2.5019   -0.6741
C   0.4797   1.4446   -0.9544
C   -0.3716   -0.0443   0.9043
C   -1.7337   -0.1250   0.2842
C   -1.9489   -0.4387   -1.0501
C   -3.2519   -0.5648   -1.5029
C   -4.2873   -0.3579   -0.6023
C   -2.8445   0.0340   1.1091
C   2.6445   -0.7573   0.7069
C   3.2714   -2.4638   -0.7601
O   2.7250   -1.1761   -0.6351
O   -0.1746   -0.5214   2.0105
N   -4.0971   -0.0629   0.6812
N   0.6155   0.5477   0.1912
H   1.8902   0.8926   1.8090
H   3.2413   1.1855   -0.8800
H   3.3736   2.2585   0.5199
H   1.8327   3.0505   -1.5689
H   1.1640   3.2137   0.0614
H   -0.5281   1.8490   -1.0163
H   0.7082   0.9155   -1.8848
H   -1.1107   -0.6032   -1.7164
H   -3.4658   -0.8221   -2.5312
H   -5.3193   -0.4400   -0.9260
H   -2.6945   0.2466   2.1616
H   2.0676   -1.4749   1.2995
H   3.6509   -0.6770   1.1422
H   3.2971   -2.7101   -1.8198
H   2.6609   -3.2048   -0.2323
H   4.2908   -2.5021   -0.3585
