13

F   -0.4965   -1.9472   0.6796
C   -0.9246   -0.7197   0.3872
F   -1.6304   -0.2761   1.4420
Cl   -2.0123   -0.8267   -1.0052
C   0.2340   0.2172   0.1296
C   1.3926   -0.2351   -0.2424
C   2.5386   -0.6754   -0.6651
F   3.5163   -1.0370   0.1648
C   -0.0248   1.6879   0.3784
F   -1.0669   2.1038   -0.3784
F   1.0539   2.4117   0.0309
H   2.7896   -0.7824   -1.7122
H   -0.2638   1.8908   1.4240
