42

C   4.3382   0.5861   -1.1104
C   2.9680   0.7370   -1.0356
C   2.2477   0.1545   0.0088
C   2.9257   -0.5809   0.9756
C   4.3053   -0.7192   0.8797
C   5.0369   -0.1468   -0.1516
C   6.5298   -0.3010   -0.2422
C   -0.0491   -0.0666   0.9173
C   -1.5081   0.2868   0.5801
C   -1.7457   1.7212   0.1645
C   -3.2881   3.4739   0.2232
C   -1.9687   -0.6104   -0.5987
C   -2.9258   -1.7511   -0.2833
C   -3.1827   -2.5484   -1.5577
C   -2.2967   -2.6518   0.7878
C   -4.2428   -1.1539   0.2330
O   0.1852   -0.7122   1.9173
O   -1.0119   2.3909   -0.5082
O   -2.9308   2.1446   0.6100
O   -1.5498   -0.3819   -1.7000
N   0.8548   0.3519   0.0074
H   4.8782   1.0463   -1.9299
H   2.4416   1.3098   -1.7902
H   2.3831   -1.0344   1.7886
H   4.8221   -1.2944   1.6391
H   6.8203   -0.7579   -1.1898
H   7.0282   0.6683   -0.1811
H   6.9097   -0.9262   0.5646
H   -2.0819   0.0759   1.4755
H   -2.5616   4.1849   0.6127
H   -4.2689   3.6522   0.6520
H   -3.3188   3.5526   -0.8621
H   -3.6222   -1.9200   -2.3319
H   -3.8677   -3.3693   -1.3408
H   -2.2550   -2.9622   -1.9522
H   -2.0916   -2.1203   1.7170
H   -1.3563   -3.0794   0.4365
H   -2.9842   -3.4707   1.0062
H   -4.1118   -0.5918   1.1579
H   -4.9437   -1.9664   0.4317
H   -4.6909   -0.4915   -0.5097
H   0.4833   0.9231   -0.7414
