25

C   -5.0155   -0.4731   0.4577
C   -3.6752   -0.7338   -0.2172
C   -2.6813   0.3996   0.0025
C   -1.3317   0.1455   -0.6711
C   -0.3904   1.2981   -0.4978
C   0.8169   1.2854   0.0525
C   1.5266   0.0818   0.5970
C   2.3390   -0.5932   -0.4971
O   2.3704   0.5032   1.6416
F   3.2492   0.2541   -1.0229
F   3.0391   -1.6298   0.0521
H   -5.4731   0.4400   0.0728
H   -4.8908   -0.3518   1.5353
H   -5.7139   -1.2934   0.2917
H   -3.2469   -1.6666   0.1614
H   -3.8239   -0.8779   -1.2914
H   -3.1038   1.3344   -0.3798
H   -2.5240   0.5499   1.0748
H   -1.5002   -0.0150   -1.7418
H   -0.9018   -0.7822   -0.2870
H   -0.7637   2.2522   -0.8605
H   1.3977   2.1984   0.1149
H   0.8109   -0.6686   0.9528
H   1.7169   -0.9875   -1.3035
H   2.9277   -0.2371   1.9057
