56

C   -4.5274   -1.5812   0.3752
C   -5.6342   -2.1640   -0.2224
C   -6.1978   -1.5917   -1.3564
C   -5.6399   -0.4408   -1.8931
C   -4.5299   0.1399   -1.2932
C   -3.9703   -0.4115   -0.1429
C   -2.7863   0.2165   0.4991
C   -2.7830   1.4376   1.0951
N   -3.7950   2.2893   1.4141
C   -5.1971   1.9777   1.2454
C   -1.5186   -0.4920   0.4609
C   -1.2871   -1.6954   -0.0854
C   -0.0000   -2.4200   0.0002
O   -0.0001   -3.6391   0.0004
C   -3.4910   3.6854   1.6354
C   1.2870   -1.6955   0.0855
C   1.5185   -0.4921   -0.4608
C   2.7862   0.2164   -0.4991
C   2.7829   1.4376   -1.0951
N   3.7949   2.2892   -1.4142
C   5.1971   1.9775   -1.2458
C   3.9703   -0.4116   0.1428
C   4.5273   -1.5813   -0.3751
C   5.6342   -2.1640   0.2224
C   6.1980   -1.5915   1.3563
C   5.6402   -0.4405   1.8928
C   4.5302   0.1401   1.2929
C   3.4909   3.6854   -1.6351
H   -1.8167   1.8108   1.4223
H   -0.6892   0.0128   0.9486
H   -2.0915   -2.2749   -0.5229
H   2.0915   -2.2750   0.5230
H   0.6891   0.0128   -0.9484
H   1.8165   1.8108   -1.4221
H   -4.0851   -2.0281   1.2576
H   -6.0582   -3.0673   0.1969
H   -7.0612   -2.0472   -1.8236
H   -6.0642   0.0031   -2.7847
H   -4.0866   1.0337   -1.7161
H   -5.5599   2.1937   0.2347
H   -5.3782   0.9270   1.4548
H   -5.7674   2.5798   1.9542
H   -4.1070   4.0767   2.4469
H   -2.4435   3.7970   1.9104
H   -3.6788   4.2915   0.7410
H   5.3780   0.9268   -1.4552
H   5.7672   2.5796   -1.9547
H   5.5600   2.1935   -0.2352
H   4.0849   -2.0284   -1.2573
H   6.0581   -3.0675   -0.1968
H   7.0614   -2.0469   1.8234
H   6.0647   0.0036   2.7842
H   4.0868   1.0340   1.7158
H   2.4434   3.7971   -1.9100
H   3.6790   4.2912   -0.7407
H   4.1068   4.0768   -2.4467
