35

N   0.0447   -0.4965   -0.7234
N   -1.0393   -0.2129   0.1209
C   -1.4324   -1.3267   0.9809
C   -0.4647   -2.4208   0.5458
C   -0.0273   -1.9737   -0.8573
C   1.3034   -0.0047   -0.2483
C   2.3926   -0.0991   -1.1133
C   3.6339   0.3743   -0.7254
C   3.8008   0.9662   0.5212
C   2.7132   1.0717   1.3734
C   1.4658   0.5865   0.9993
C   -1.7837   0.9198   0.0581
O   -2.7124   1.0646   0.8387
O   -1.2933   -1.0375   2.3417
C   -1.0187   -2.3556   -1.9425
C   -1.3776   1.9475   -0.9700
C   -2.3299   3.1298   -0.9949
H   -2.4771   -1.5627   0.7604
H   -0.9196   -3.4087   0.5596
H   0.3824   -2.4080   1.2336
H   0.9668   -2.3402   -1.1048
H   2.2491   -0.5297   -2.0970
H   4.4718   0.2952   -1.4060
H   4.7688   1.3449   0.8204
H   2.8310   1.5282   2.3478
H   0.6268   0.6504   1.6795
H   -1.9455   -0.3501   2.5362
H   -0.6949   -1.9672   -2.9074
H   -2.0075   -1.9471   -1.7250
H   -1.1065   -3.4403   -2.0113
H   -1.3150   1.4464   -1.9388
H   -0.3556   2.2636   -0.7401
H   -2.0091   3.8597   -1.7373
H   -3.3419   2.8081   -1.2370
H   -2.3679   3.6149   -0.0208
