22

S   -0.7498   -1.6964   -0.6721
S   0.7498   -1.6965   0.6722
N   -1.4281   0.4272   0.8456
N   1.4283   0.4268   -0.8459
C   -1.8091   -0.3680   -0.1327
C   1.8090   -0.3681   0.1328
C   -3.0184   -0.2288   -0.8176
C   3.0182   -0.2285   0.8179
C   -3.8569   0.8018   -0.4443
C   3.8568   0.8020   0.4444
C   -3.4701   1.6484   0.5883
C   3.4701   1.6482   -0.5885
C   -2.2500   1.4150   1.1981
C   2.2501   1.4145   -1.1985
H   -3.2821   -0.9137   -1.6128
H   3.2818   -0.9130   1.6135
H   -4.8039   0.9431   -0.9494
H   4.8036   0.9436   0.9498
H   -4.0974   2.4667   0.9122
H   4.0974   2.4664   -0.9127
H   -1.9060   2.0486   2.0081
H   1.9063   2.0479   -2.0087
