37

C   -1.9968   0.0302   -0.6511
C   -1.0582   -0.8709   0.1338
C   -1.3568   -1.4084   1.3110
H   -2.3054   -1.2315   1.7976
H   -0.6389   -2.0428   1.8216
C   0.3110   -1.0957   -0.4729
C   1.3881   -0.1961   0.1212
O   1.1030   1.1218   -0.2313
C   1.9420   2.0922   0.3842
C   1.4154   3.4617   0.0243
H   1.4123   3.5929   -1.0575
H   2.0451   4.2341   0.4653
H   0.3977   3.5943   0.3929
H   2.9659   1.9540   0.0316
H   1.9269   1.9373   1.4697
O   2.6583   -0.5179   -0.3806
C   3.3634   -1.4779   0.3812
C   4.6994   -1.7188   -0.2819
H   4.5566   -2.0947   -1.2944
H   5.2771   -2.4492   0.2845
H   5.2669   -0.7901   -0.3363
H   3.4973   -1.1073   1.4054
H   2.7923   -2.4126   0.4404
H   1.3979   -0.2883   1.2201
H   0.3102   -0.9235   -1.5513
H   0.6235   -2.1276   -0.3034
C   -3.4948   -0.0804   -0.3697
C   -4.0714   -1.4646   -0.5730
H   -3.8549   -1.8209   -1.5815
H   -3.6593   -2.1744   0.1418
H   -5.1526   -1.4301   -0.4440
O   -3.8039   0.3554   0.9406
H   -3.3063   1.1722   1.0741
H   -3.9630   0.6029   -1.0913
O   -1.6886   1.4014   -0.4301
H   -0.7246   1.4959   -0.3990
H   -1.8621   -0.2045   -1.7168
