18

C   -1.3924   1.1914   -0.1676
C   -2.4179   -0.8468   -0.0423
C   0.6780   0.4130   0.9190
C   1.3525   -0.2311   -0.2828
C   2.8468   -0.2505   -0.1131
O   -1.0666   2.2821   -0.5410
O   -3.1431   -1.7708   -0.2090
O   -1.3265   -0.8713   0.7766
O   3.4628   -0.7834   -1.1791
O   3.4354   0.1543   0.8491
N   -2.4605   0.4171   -0.5839
N   -0.7692   0.4251   0.8080
H   0.9711   1.4564   1.0196
H   0.9405   -0.0967   1.8433
H   1.0129   -1.2596   -0.4227
H   1.1206   0.3131   -1.2018
H   4.4153   -0.7652   -1.0042
H   -3.1495   0.7125   -1.2553
