55

S   -2.0597   0.4583   2.2903
C   -1.0719   -0.5625   1.1530
N   -1.0849   0.1660   -0.1126
C   0.1213   0.1500   -0.7377
C   1.0156   -0.8065   0.0491
C   0.4178   -0.7263   1.4609
C   -3.0484   1.0224   0.8918
C   -2.0608   1.2173   -0.2722
O   0.4401   0.7981   -1.7049
N   2.3795   -0.3871   -0.0936
C   3.3774   -1.1769   0.3726
O   3.2084   -2.1595   1.0552
O   -3.9894   0.0059   0.5602
C   -5.0634   0.4031   -0.1638
O   -5.2110   1.5345   -0.5318
C   -1.4606   2.6250   -0.2181
O   -2.0109   3.5712   -0.7005
O   4.5796   -0.7116   -0.0079
C   5.6964   -1.4651   0.4688
C   6.9567   -0.8766   -0.0972
C   6.9964   -0.3722   -1.3932
C   8.1817   0.1235   -1.9149
C   9.3408   0.1142   -1.1501
C   9.3069   -0.3881   0.1424
C   8.1179   -0.8763   0.6665
C   -6.0056   -0.7131   -0.4354
C   -5.8045   -1.9911   0.0775
C   -6.7180   -2.9944   -0.2057
C   -7.8256   -2.7229   -0.9981
C   -8.0253   -1.4462   -1.5089
C   -7.1168   -0.4399   -1.2277
O   -0.3150   2.6755   0.4554
C   0.3025   3.9625   0.5058
H   -1.5687   -1.5280   1.0399
H   0.8807   -1.8200   -0.3482
H   0.6462   -1.5978   2.0677
H   0.7929   0.1750   1.9487
H   -3.5678   1.9477   1.1334
H   -2.5996   1.1512   -1.2175
H   2.5789   0.3071   -0.8002
H   5.7081   -1.4442   1.5593
H   5.5734   -2.5057   0.1606
H   6.0924   -0.3612   -1.9881
H   8.2012   0.5183   -2.9226
H   10.2650   0.5014   -1.5588
H   10.2039   -0.3923   0.7479
H   8.0913   -1.2575   1.6807
H   -4.9415   -2.1910   0.6969
H   -6.5667   -3.9890   0.1924
H   -8.5364   -3.5091   -1.2181
H   -8.8892   -1.2373   -2.1257
H   -7.2491   0.5629   -1.6115
H   -0.3585   4.6774   0.9929
H   1.2166   3.8307   1.0757
H   0.5222   4.3053   -0.5039
