32

N   1.7825   0.7731   0.2267
C   2.1098   -0.6793   0.0642
N   0.8631   -1.3539   -0.3057
C   -0.1039   -0.5395   -0.1813
C   0.2907   0.8613   0.2725
O   2.3332   1.5583   -0.8003
C   2.5802   -1.2349   1.4071
C   3.1674   -0.9481   -0.9957
C   -1.4692   -0.9946   -0.4290
N   -2.4706   -0.2353   -0.2174
N   -3.7033   -0.6910   -0.4985
C   -4.7781   -0.0289   0.2115
C   -0.2706   1.9652   -0.6188
C   -0.1525   1.1095   1.7168
H   -1.5766   -2.0212   -0.7880
H   1.9852   1.2445   -1.6484
H   2.7270   -2.3123   1.3314
H   1.8460   -1.0395   2.1861
H   3.5187   -0.7574   1.6873
H   3.3931   -2.0135   -0.9832
H   2.8136   -0.6998   -1.9963
H   4.0727   -0.3809   -0.7886
H   -3.7831   -1.7017   -0.5609
H   -5.7272   -0.3654   -0.2021
H   -4.7641   -0.2271   1.2879
H   -4.6872   1.0436   0.0518
H   -0.1333   1.7571   -1.6807
H   0.2178   2.9096   -0.3845
H   -1.3391   2.0500   -0.4366
H   -1.2407   1.1061   1.7793
H   0.2389   0.3486   2.3896
H   0.2266   2.0792   2.0401
