15

O   -1.9328   0.0337   -0.1758
C   -0.7771   -0.6672   0.2490
C   0.4473   0.0060   -0.3448
H   -2.7092   -0.3702   0.2185
C   1.6983   -0.7895   0.0102
C   0.5557   1.4502   0.1300
H   -0.8177   -1.7132   -0.0776
H   -0.6965   -0.6568   1.3447
H   0.3185   0.0021   -1.4317
H   1.6394   -1.8172   -0.3526
H   2.5862   -0.3290   -0.4244
H   1.8386   -0.8210   1.0939
H   0.6936   1.4817   1.2146
H   -0.3459   2.0096   -0.1146
H   1.4105   1.9478   -0.3305
