32

C   2.2012   -0.9855   0.0830
C   1.3933   0.1456   -0.0626
C   2.0175   1.3857   -0.2007
C   3.3956   1.4897   -0.1928
C   4.1735   0.3513   -0.0468
C   3.5815   -0.8915   0.0915
Cl   1.4643   -2.5439   0.2572
N   0.0145   0.0077   -0.0654
N   -0.7522   1.0749   -0.1995
C   -2.0373   1.0061   -0.2221
C   -2.7667   -0.2822   -0.1068
O   -2.2450   -1.3660   0.0433
Cl   5.9007   0.4783   -0.0371
C   -2.8058   2.2929   -0.3399
C   -3.4124   2.7380   0.9918
O   -4.0887   -0.1267   -0.1951
C   -4.8720   -1.3259   -0.0912
C   -6.3230   -0.9281   -0.2008
H   1.3993   2.2638   -0.3140
H   3.8712   2.4545   -0.3003
H   4.1821   -1.7825   0.2055
H   -0.4138   -0.9080   0.0341
H   -3.5964   2.1796   -1.0831
H   -2.1104   3.0489   -0.7031
H   -3.9551   3.6760   0.8730
H   -2.6285   2.8888   1.7348
H   -4.1087   1.9912   1.3734
H   -4.6467   -1.8062   0.8617
H   -4.5699   -2.0080   -0.8867
H   -6.5189   -0.4444   -1.1571
H   -6.5956   -0.2400   0.5989
H   -6.9535   -1.8137   -0.1252
