63

C   -3.0431   -1.0998   0.1603
C   -1.5373   -0.7725   -0.0883
C   -0.5340   -0.9967   1.0790
C   -0.8756   -2.2081   1.9520
C   -2.3635   -2.3844   2.2276
C   -3.0988   -2.4473   0.8946
C   0.9035   -1.1475   0.4894
C   1.1701   -0.0290   -0.5538
C   0.1543   1.0822   -0.2666
C   -1.2414   0.6181   -0.7007
C   1.1541   -0.5281   -2.0113
C   2.3854   -1.4356   -2.0301
C   2.0613   -2.6887   -1.2304
C   1.3057   -2.5264   0.0115
C   -3.7135   -1.2483   -1.2091
C   -3.8869   -0.0941   0.9730
O   -2.1269   1.6321   -0.2398
O   0.4234   2.2727   -0.9114
O   0.1680   1.3277   1.1363
C   -0.4501   0.2947   1.9017
H   -1.2483   -1.5016   -0.8509
C   2.6401   0.4396   -0.5042
C   3.4026   -0.6563   -1.2182
C   4.6954   -0.9034   -1.0966
O   3.1534   0.6796   0.8015
H   2.7697   -3.5075   -1.3091
H   1.4729   -3.2580   0.7950
O   0.7010   -3.0826   -1.1542
C   -2.7444   2.4030   -1.1539
C   -3.4115   3.5689   -0.4855
O   -2.7601   2.1747   -2.3302
C   3.1074   1.9368   1.2700
O   2.7653   2.8874   0.6172
C   3.5187   1.9965   2.7083
H   -0.2954   -2.1594   2.8791
H   -0.5579   -3.1137   1.4313
H   -2.7569   -1.5707   2.8420
H   -2.5159   -3.3051   2.7937
H   -4.1454   -2.7292   1.0326
H   -2.6376   -3.2226   0.2718
H   1.5812   -0.9611   1.3307
H   -1.2897   0.5932   -1.7875
H   0.2523   -1.0609   -2.2959
H   1.2826   0.3267   -2.6782
H   2.7358   -1.6901   -3.0295
H   -4.7730   -1.4844   -1.0854
H   -3.2524   -2.0523   -1.7871
H   -3.6417   -0.3242   -1.7883
H   -3.3652   0.3524   1.8152
H   -4.7617   -0.6190   1.3651
H   -4.2520   0.7172   0.3489
H   1.1554   2.7116   -0.4468
H   -1.4336   0.6365   2.2297
H   0.1741   0.1334   2.7855
H   2.7219   1.3609   -1.0850
H   5.1704   -1.7026   -1.6522
H   5.3180   -0.3155   -0.4340
H   -2.6363   4.2315   -0.0994
H   -4.0049   3.2254   0.3612
H   -4.0313   4.0962   -1.2034
H   3.8056   3.0123   2.9620
H   4.3228   1.2941   2.9145
H   2.6510   1.7116   3.3066
