78

C   -5.7146   -2.0994   0.0301
C   -6.3626   -0.9333   0.7755
C   -5.9023   0.3966   0.2146
C   -4.1967   -1.9538   -0.0070
C   -3.6695   -0.6180   -0.5594
C   -3.9356   1.8592   -0.3137
C   -2.4894   1.9983   -0.5573
C   -2.1199   -0.4833   -0.4064
C   -1.6567   0.9557   -0.5852
C   0.0654   -0.7906   0.8182
C   -1.4465   -1.0206   0.8704
C   -0.1679   1.1901   -0.6999
C   0.5617   0.6404   0.5638
C   0.5307   0.4581   -1.8527
C   2.0039   0.5576   -1.4562
C   2.0642   0.5180   0.0975
C   3.1260   1.4953   0.6428
C   3.3306   1.3817   2.1563
O   2.6699   2.8153   0.3105
C   5.1130   -0.0966   0.1307
C   6.4695   -0.1879   -0.5587
C   7.2681   -1.4563   -0.2331
C   6.4789   -2.7206   -0.5357
C   8.5829   -1.4510   -1.0048
O   7.5373   -1.5098   1.1689
C   0.2372   1.5039   1.7827
O   0.0589   2.5760   -0.8418
O   -1.6449   -2.4284   0.9455
C   -3.9582   -0.5129   -2.0688
O   -6.3423   -2.1617   -1.2405
O   -5.9958   -0.9679   2.1484
O   -4.6990   2.7804   -0.4947
C   -4.3827   0.5158   0.2123
H   -4.0347   0.4683   1.2532
C   4.4786   1.2771   -0.0586
H   5.1659   2.0369   0.3344
H   -5.9421   -3.0215   0.5856
H   -7.4489   -1.0201   0.6672
H   -6.3269   1.2060   0.8075
H   -6.2928   0.5099   -0.7972
H   -3.7537   -2.7902   -0.5576
H   -3.8678   -2.0671   1.0243
H   -2.1194   3.0027   -0.7067
H   -1.6861   -1.0835   -1.2154
H   0.5051   -1.1403   1.7602
H   0.4390   -1.4610   0.0395
H   -1.8901   -0.5337   1.7486
H   0.3124   0.9564   -2.7963
H   0.2086   -0.5785   -1.9325
H   2.3862   1.5176   -1.8031
H   2.6197   -0.2188   -1.9113
H   2.4105   -0.4663   0.4187
H   3.3580   0.3388   2.4745
H   4.2813   1.8396   2.4405
H   2.5402   1.8882   2.6994
H   3.3695   3.4538   0.4815
H   5.2425   -0.3185   1.1926
H   4.4496   -0.8626   -0.2779
H   7.0821   0.6739   -0.2664
H   6.3396   -0.1175   -1.6434
H   5.6142   -2.7958   0.1226
H   6.1373   -2.7226   -1.5719
H   7.1064   -3.5963   -0.3700
H   8.4057   -1.4823   -2.0808
H   9.1548   -0.5454   -0.7847
H   9.1829   -2.3166   -0.7233
H   8.1395   -0.7921   1.3916
H   0.5823   1.0267   2.7006
H   -0.8443   1.6286   1.8598
H   0.6730   2.4972   1.7151
H   0.9533   2.7952   -0.5416
H   -1.0995   -2.7707   1.6603
H   -3.5902   -1.4093   -2.5751
H   -5.0217   -0.4270   -2.2753
H   -3.4524   0.3468   -2.5102
H   -5.8277   -2.7386   -1.8123
H   -6.3511   -1.7685   2.5451
H   4.3685   1.4865   -1.1242
