15

S   1.0536   0.0484   0.0532
O   0.0792   -1.0973   -0.4664
O   0.5552   1.2804   -0.7343
O   0.7813   0.2332   1.4434
O   2.3418   -0.2923   -0.4100
N   -1.9183   1.0916   0.1347
C   -1.1911   -1.2735   0.1670
C   -2.2343   -0.2767   -0.3028
H   -0.4198   1.4227   -0.4473
H   -2.6425   1.7402   -0.1507
H   -1.8382   1.1384   1.1468
H   -1.5025   -2.2778   -0.1134
H   -1.0606   -1.2312   1.2497
H   -2.2672   -0.2828   -1.3932
H   -3.2063   -0.6166   0.0680
