39

C   3.0787   1.0629   -0.4190
C   4.4129   0.6970   -0.4465
C   4.7970   -0.6190   -0.2225
C   3.8207   -1.5679   0.0011
C   2.4740   -1.2143   0.0202
C   2.0710   0.1199   -0.1642
C   1.4983   -2.3252   0.2003
C   0.0564   -1.9680   0.0695
C   -0.3301   -0.6091   -0.0501
C   0.6272   0.4595   -0.1130
N   -0.8000   -2.9605   0.1122
C   -2.1107   -2.7036   0.0413
C   -2.6110   -1.4211   -0.0401
C   -1.7104   -0.3288   -0.0740
C   -2.1823   1.0015   -0.1174
C   -1.2735   2.0179   -0.1162
C   0.1336   1.7467   -0.1161
O   1.8599   -3.4543   0.4258
O   0.9341   2.8466   -0.1483
C   1.1912   3.4030   1.1367
O   -1.5831   3.3298   -0.1223
C   -2.9528   3.6711   -0.1505
O   -3.9225   -1.1089   -0.0832
C   -4.8523   -2.1738   -0.0534
H   2.8184   2.0872   -0.6185
H   5.1604   1.4528   -0.6515
H   5.8421   -0.8984   -0.2392
H   4.0666   -2.6100   0.1562
H   -2.7645   -3.5652   0.0668
H   -3.2458   1.1784   -0.1356
H   0.2574   3.6905   1.6227
H   1.8061   4.2852   0.9760
H   1.7310   2.6841   1.7590
H   -2.9937   4.7564   -0.1586
H   -3.4338   3.2788   -1.0498
H   -3.4707   3.2891   0.7331
H   -4.7156   -2.8355   -0.9118
H   -5.8367   -1.7170   -0.0980
H   -4.7564   -2.7502   0.8696
