14

C   -2.1285   0.0429   -0.0001
C   -1.0171   0.5035   0.0000
C   1.5503   -0.3064   0.0004
C   3.0155   0.1026   -0.0006
C   3.9293   -1.1173   0.0001
S   0.5165   1.1955   0.0001
Cl   -3.6409   -0.5795   -0.0001
H   1.3046   -0.8893   0.8875
H   1.3037   -0.8902   -0.8859
H   3.2179   0.7205   -0.8786
H   3.2186   0.7220   0.8761
H   4.9776   -0.8200   -0.0010
H   3.7546   -1.7365   -0.8811
H   3.7559   -1.7345   0.8830
