26

C   0.4553   -0.4471   0.0004
C   -1.9327   0.2414   0.0001
C   -2.4922   -1.0349   0.0000
C   -3.8739   -1.1679   -0.0002
C   -4.7068   -0.0595   -0.0003
C   -4.1424   1.2089   -0.0002
C   -2.7673   1.3597   -0.0000
C   3.8235   0.1015   -0.0001
C   3.8694   1.6007   -0.0000
C   5.1042   -0.6702   -0.0004
N   2.7555   -0.5858   -0.0000
O   1.6361   0.2528   0.0003
N   -0.5492   0.4775   0.0003
O   0.3539   -1.6353   0.0002
H   -1.8535   -1.9029   0.0001
H   -4.3002   -2.1628   -0.0002
H   -5.7815   -0.1804   -0.0004
H   -4.7736   2.0879   -0.0003
H   -2.3307   2.3520   0.0001
H   3.3549   1.9941   -0.8774
H   3.3552   1.9940   0.8775
H   4.8980   1.9541   -0.0002
H   4.9065   -1.7389   -0.0004
H   5.6961   -0.4078   0.8790
H   5.6958   -0.4077   -0.8799
H   -0.2535   1.4401   0.0003
