35

C   1.3112   0.1733   1.1674
C   2.7687   -0.2332   0.9934
C   3.0528   0.2136   -0.4437
C   1.7203   -0.0183   -1.1747
C   -0.6702   0.0240   -0.4287
C   -1.5076   -1.2496   -0.1939
C   -1.5542   -1.6697   1.2719
C   -1.2302   1.2954   0.2369
C   -0.5196   2.5272   -0.3236
C   -2.7379   1.4474   0.0509
C   -0.9751   -2.3923   -1.0525
N   0.7360   -0.2059   -0.1117
H   0.8210   -0.3462   1.9917
H   1.2548   1.2529   1.3808
H   3.4309   0.2308   1.7233
H   2.8569   -1.3173   1.0813
H   3.2993   1.2771   -0.4503
H   3.8827   -0.3201   -0.9035
H   1.7543   -0.9047   -1.8175
H   1.4746   0.8357   -1.8191
H   -0.7147   0.2076   -1.5109
H   -2.5269   -1.0337   -0.5258
H   -1.8804   -0.8582   1.9260
H   -0.5661   -1.9986   1.5997
H   -2.2416   -2.5061   1.4093
H   -1.0295   1.2391   1.3116
H   -0.8134   3.4295   0.2155
H   0.5655   2.4374   -0.2673
H   -0.7865   2.6650   -1.3751
H   -3.0050   1.3815   -1.0077
H   -3.3010   0.6848   0.5886
H   -3.0664   2.4225   0.4150
H   0.0538   -2.6228   -0.7704
H   -0.9869   -2.1297   -2.1129
H   -1.5774   -3.2930   -0.9214
