12

C   -3.2828   -0.1842   0.0001
C   -0.9045   0.4969   0.0003
C   0.3150   -0.4116   0.0002
C   1.5840   0.3893   -0.0001
Cl   3.0416   -0.6366   -0.0002
O   1.6740   1.5653   -0.0001
N   -2.0944   -0.3138   0.0009
O   -4.4469   -0.1746   -0.0008
H   -0.8875   1.1408   0.8806
H   -0.8879   1.1406   -0.8800
H   0.3207   -1.0657   -0.8738
H   0.3211   -1.0655   0.8744
