20

N   0.5775   0.2490   0.7041
C   -0.0333   1.2766   0.0753
C   -1.4142   0.8161   -0.2365
C   -1.5664   -0.4457   0.1847
C   -0.2784   -0.9197   0.8139
C   1.9559   0.3168   1.1242
C   2.9239   0.1734   -0.0579
C   2.7319   -1.1103   -0.7284
N   2.5343   -2.1285   -1.2156
O   0.4160   2.3707   -0.2020
O   -2.2534   1.6361   -0.8431
C   -2.7252   -1.2572   0.0907
N   -3.6506   -1.9346   0.0340
H   -0.4203   -1.2015   1.8607
H   0.1464   -1.7700   0.2736
H   2.1269   1.2859   1.5940
H   2.1314   -0.4666   1.8606
H   3.9559   0.2468   0.2866
H   2.7446   0.9800   -0.7703
H   -1.7795   2.4706   -0.9989
