47

C   -0.7182   -0.5816   0.3405
C   -2.0343   -1.0062   0.2510
C   -2.9877   -0.0890   -0.2229
C   -2.5873   1.1929   -0.5703
C   -1.2544   1.5930   -0.4812
C   -0.2944   0.6878   -0.0326
C   1.1895   1.0751   0.0171
N   1.3573   2.5302   0.1000
C   0.6041   3.2565   -0.9037
C   -0.9057   3.0238   -0.8144
H   -1.3842   3.3136   -1.7524
H   -1.3407   3.6650   -0.0416
H   0.9697   2.9444   -1.8839
H   0.8286   4.3204   -0.8063
C   1.0736   2.8944   1.4868
C   1.7412   1.7766   2.2995
C   1.8518   0.6434   1.3070
C   2.5219   -0.4905   1.4336
C   2.6085   -1.5000   0.3347
C   2.1011   -1.0227   -1.0515
C   1.9665   0.4885   -1.1651
H   1.4939   0.7350   -2.1177
H   2.9655   0.9271   -1.1476
O   3.1086   -1.4728   -1.9524
C   3.9622   -2.3193   -1.2243
O   3.9695   -1.8345   0.0854
H   3.5815   -3.3516   -1.2476
H   4.9671   -2.2654   -1.6381
H   1.1576   -1.5165   -1.2947
H   2.0696   -2.4155   0.6183
H   3.0409   -0.7365   2.3541
H   2.7344   2.0699   2.6399
H   1.1532   1.5019   3.1751
H   1.4784   3.8844   1.6998
H   -0.0044   2.9150   1.7024
H   -3.3115   1.9160   -0.9194
O   -4.2852   -0.4948   -0.3207
C   -5.2444   0.4185   -0.8106
H   -6.1919   -0.1133   -0.8175
H   -5.3228   1.2928   -0.1606
H   -4.9987   0.7373   -1.8259
C   -2.2761   -2.4327   0.6781
O   -1.3430   -3.1491   0.9883
N   -3.5522   -2.8774   0.7116
H   -4.3198   -2.2988   0.4234
H   -3.6931   -3.8345   0.9858
H   -0.0153   -1.3023   0.7371
