39

C   -3.3273   -0.9192   -0.3311
C   -4.3868   -0.3584   0.3850
C   -4.2542   0.8743   1.0178
C   -3.0527   1.5541   0.9360
C   -1.9791   1.0175   0.2291
C   -2.1306   -0.2206   -0.4002
C   -0.6990   1.6639   0.1068
C   0.2969   1.0919   -0.5853
C   0.0998   -0.2003   -1.2477
C   1.6685   1.6962   -0.7341
C   2.6425   0.9643   0.1460
C   3.6262   0.1495   -0.2300
C   3.9785   -0.2521   -1.6290
C   4.4353   -0.4364   0.8897
C   6.1714   -1.8977   1.4391
C   -6.6367   -0.6460   1.0882
O   1.5813   3.0541   -0.3357
O   4.2930   -0.1932   2.0585
O   -1.1230   -0.7922   -1.1064
O   0.9318   -0.7617   -1.9044
O   -3.4502   -2.1126   -0.9469
O   -5.5086   -1.1273   0.3868
O   5.3656   -1.2877   0.4351
H   -5.0795   1.2995   1.5693
H   -2.9360   2.5127   1.4240
H   -0.5416   2.6273   0.5765
H   1.9592   1.6215   -1.7848
H   2.5007   1.1395   1.2091
H   3.7733   -1.3133   -1.7735
H   5.0416   -0.0966   -1.8133
H   3.3949   0.2923   -2.3644
H   6.7145   -1.1391   2.0011
H   5.5494   -2.4674   2.1280
H   6.8594   -2.5519   0.9124
H   -6.9782   0.3038   0.6705
H   -6.4099   -0.5195   2.1492
H   -7.4128   -1.3964   0.9687
H   2.4745   3.4039   -0.2658
H   -4.3443   -2.4391   -0.7840
