47

C   -0.8720   1.4755   1.3169
C   0.2218   0.5501   0.7991
C   -0.8094   1.6055   2.8278
C   -1.0631   2.8565   -0.5772
C   0.0139   -0.8043   0.5284
C   1.4750   1.1142   0.5766
C   -0.7203   4.1775   -1.0984
C   -1.3321   -1.4203   0.7155
C   1.0850   -1.5718   0.0497
C   2.5338   0.3463   0.1138
C   -0.4421   5.2528   -1.5445
C   -1.8760   -2.3495   -0.3596
C   2.3412   -1.0188   -0.1388
C   -3.3797   -2.1879   -0.4857
C   4.0144   2.1877   0.1147
C   -3.7457   -0.7951   -0.9195
C   3.6334   -1.7384   -1.9383
C   1.4191   -3.7776   0.7494
O   -0.7078   2.7825   0.7866
O   -2.0097   -1.1562   1.6824
O   3.7745   0.8161   -0.1296
O   3.3797   -1.8054   -0.5405
O   -5.0663   -0.6533   -1.1064
O   -2.9696   0.1081   -1.0874
O   0.8997   -2.8956   -0.2409
H   -1.8490   1.0906   1.0165
H   -0.9441   0.6283   3.2869
H   0.1584   2.0145   3.1219
H   -1.5935   2.2794   3.1714
H   -0.5355   2.0914   -1.1599
H   -2.1352   2.6688   -0.7024
H   1.5923   2.1731   0.7583
H   -0.1985   6.2114   -1.9352
H   -1.3726   -2.1577   -1.3056
H   -1.6321   -3.3738   -0.0722
H   -3.8737   -2.3664   0.4709
H   -3.8059   -2.8912   -1.2025
H   3.8462   2.4330   1.1658
H   3.3759   2.8169   -0.5102
H   5.0570   2.3596   -0.1371
H   2.7627   -2.0893   -2.4973
H   3.8796   -0.7166   -2.2337
H   4.4822   -2.3897   -2.1331
H   2.4918   -3.6263   0.8733
H   1.2264   -4.7884   0.3969
H   0.9079   -3.6164   1.7030
H   -5.2262   0.2648   -1.3687
